version 2
run General-0-20210128-15:21:14-1444
attr configname General
attr datetime 20210128-15:21:14
attr experiment General
attr inifile omnetpp.ini
attr iterationvars ""
attr iterationvarsf ""
attr measurement ""
attr network MyNet
attr processid 1444
attr repetition 0
attr replication #0
attr resultdir results
attr runnumber 0
attr seedset 0
param MyNet.fuente1.lambda 2
param MyNet.fuente1.tampaquete 1000
param MyNet.fuente2.lambda 2
param MyNet.fuente2.tampaquete 1000
param MyNet.fuente3.lambda 2
param MyNet.fuente3.tampaquete 1000

vector 0 MyNet.fuente1 packetSize ETV
vector 1 MyNet.fuente1 lambdaVector ETV
vector 2 MyNet.fuente2 packetSize ETV
vector 3 MyNet.fuente2 lambdaVector ETV
vector 4 MyNet.fuente3 packetSize ETV
vector 5 MyNet.fuente3 lambdaVector ETV
0	1	0.208107476471	663.13322505553
0	15	0.539674088999	1090.1618579531
0	23	1.084755017976	73.147313260553
0	25	1.121328674606	156.77823449677
0	29	1.199717791854	1756.8619488868
0	52	2.078148766297	900.54859285662
0	66	2.528423062725	264.47795769994
0	72	2.660662041575	1243.8833943126
0	92	3.282603738731	290.02012067479
0	101	3.427613799068	4435.2779025387
0	162	5.645252750337	149.36633860052
0	167	5.719935919637	110.19696598448
0	169	5.775034402629	3882.778978091
0	248	7.716423891674	433.24278006476
0	256	7.933045281706	162.07349436658
0	258	8.014082028889	4600.6190904816
0	341	10.31439157413	309.0553604574
0	355	10.468919254359	793.04311897689
0	373	10.865440813847	92.861476541887
0	382	10.911871552118	2537.5840461886
0	442	12.180663575212	1631.804822775
0	486	12.9965659866	542.73127445724
0	510	13.267931623829	2235.3494395052
0	568	14.385606343582	2396.0928805266
0	643	15.583652783845	66.442348192038
0	645	15.616873957941	237.38892145926
0	658	15.735568418671	420.28279629813
0	671	15.94570981682	1020.3587363012
0	719	16.455889184971	497.59320454258
0	730	16.704685787242	180.32126564334
0	741	16.794846420064	236.60028179968
0	755	16.913146560964	1205.1549055325
0	798	17.51572401373	347.23948072922
0	813	17.689343754095	672.89976702918
0	844	18.02579363761	3603.7095100645
0	986	19.827648392642	416.6134003657
0	1007	20.035955092825	517.78452034811
0	1032	20.294847352999	1215.174285204
0	1076	20.902434495601	71.311185061525
0	1081	20.938090088132	206.94412814554
0	1100	21.041562152205	718.53267048854
0	1145	21.400828487449	759.85581464005
0	1170	21.780756394769	669.42381027525
0	1194	22.115468299907	594.00557876592
1	1	0.208107476471	0.208107476471
1	15	0.539674088999	0.539674088999
1	23	1.084755017976	1.084755017976
1	25	1.121328674606	1.121328674606
1	29	1.199717791854	1.199717791854
1	52	2.078148766297	2.078148766297
1	66	2.528423062725	2.528423062725
1	72	2.660662041575	2.660662041575
1	92	3.282603738731	3.282603738731
1	101	3.427613799068	3.427613799068
1	162	5.645252750337	5.645252750337
1	167	5.719935919637	5.719935919637
1	169	5.775034402629	5.775034402629
1	248	7.716423891674	7.716423891674
1	256	7.933045281706	7.933045281706
1	258	8.014082028889	8.014082028889
1	341	10.31439157413	10.31439157413
1	355	10.468919254359	10.468919254359
1	373	10.865440813847	10.865440813847
1	382	10.911871552118	10.911871552118
1	442	12.180663575212	12.180663575212
1	486	12.9965659866	12.9965659866
1	510	13.267931623829	13.267931623829
1	568	14.385606343582	14.385606343582
1	643	15.583652783845	15.583652783845
1	645	15.616873957941	15.616873957941
1	658	15.735568418671	15.735568418671
1	671	15.94570981682	15.94570981682
1	719	16.455889184971	16.455889184971
1	730	16.704685787242	16.704685787242
1	741	16.794846420064	16.794846420064
1	755	16.913146560964	16.913146560964
1	798	17.51572401373	17.51572401373
1	813	17.689343754095	17.689343754095
1	844	18.02579363761	18.02579363761
1	986	19.827648392642	19.827648392642
1	1007	20.035955092825	20.035955092825
1	1032	20.294847352999	20.294847352999
1	1076	20.902434495601	20.902434495601
1	1081	20.938090088132	20.938090088132
1	1100	21.041562152205	21.041562152205
1	1145	21.400828487449	21.400828487449
1	1170	21.780756394769	21.780756394769
1	1194	22.115468299907	22.115468299907
2	2	0.208107476471	4555.0739064929
2	64	2.485644429717	344.72723656645
2	70	2.658008048	609.71871128411
2	82	2.962867403642	2604.9937195838
2	117	4.265364263434	135.9235752504
2	119	4.333326051059	308.29347564072
2	128	4.487472788879	375.55427881593
2	135	4.675249928287	2958.4381935458
2	182	6.15446902506	580.69520897308
2	195	6.444816629547	699.83411056252
2	207	6.794733684828	677.16620198151
2	218	7.133316785819	1832.3569725589
2	260	8.049495272098	65.877238259457
2	264	8.082433891228	3784.6811440627
2	319	9.974774463259	1115.7224581749
2	360	10.532635692346	698.35964097067
2	376	10.881815512831	748.20077450578
2	405	11.255915900084	353.80149726757
2	409	11.432816648718	650.6088246054
2	418	11.758121061021	1337.1299672113
2	462	12.426686044627	4225.0654831836
2	571	14.539218786219	323.43256126679
2	586	14.700935066852	56.471129921374
2	588	14.729170631813	1328.7577069279
2	636	15.393549485277	562.34994695875
2	651	15.674724458756	204.29594678474
2	662	15.776872432148	2034.0121161617
2	739	16.793878490229	167.24444486868
2	751	16.877500712663	208.32396148152
2	764	16.981662693404	186.76029027759
2	774	17.075042838543	1027.940582606
2	802	17.589013129846	564.89769248965
2	826	17.871461976091	1043.162920685
2	877	18.393043436433	922.03950682242
2	903	18.854063189844	1152.2597316519
2	955	19.43019305567	825.91001566494
2	988	19.843148063502	1755.0408523499
2	1062	20.720668489677	3349.206348045
3	2	0.208107476471	0.208107476471
3	64	2.485644429717	2.485644429717
3	70	2.658008048	2.658008048
3	82	2.962867403642	2.962867403642
3	117	4.265364263434	4.265364263434
3	119	4.333326051059	4.333326051059
3	128	4.487472788879	4.487472788879
3	135	4.675249928287	4.675249928287
3	182	6.15446902506	6.15446902506
3	195	6.444816629547	6.444816629547
3	207	6.794733684828	6.794733684828
3	218	7.133316785819	7.133316785819
3	260	8.049495272098	8.049495272098
3	264	8.082433891228	8.082433891228
3	319	9.974774463259	9.974774463259
3	360	10.532635692346	10.532635692346
3	376	10.881815512831	10.881815512831
3	405	11.255915900084	11.255915900084
3	409	11.432816648718	11.432816648718
3	418	11.758121061021	11.758121061021
3	462	12.426686044627	12.426686044627
3	571	14.539218786219	14.539218786219
3	586	14.700935066852	14.700935066852
3	588	14.729170631813	14.729170631813
3	636	15.393549485277	15.393549485277
3	651	15.674724458756	15.674724458756
3	662	15.776872432148	15.776872432148
3	739	16.793878490229	16.793878490229
3	751	16.877500712663	16.877500712663
3	764	16.981662693404	16.981662693404
3	774	17.075042838543	17.075042838543
3	802	17.589013129846	17.589013129846
3	826	17.871461976091	17.871461976091
3	877	18.393043436433	18.393043436433
3	903	18.854063189844	18.854063189844
3	955	19.43019305567	19.43019305567
3	988	19.843148063502	19.843148063502
3	1062	20.720668489677	20.720668489677
4	3	0.208107476471	1385.5111737864
4	19	0.900863063364	1751.4584797108
4	39	1.776592303219	126.72780162477
4	43	1.839956204031	202.89023986378
4	50	1.941401323963	307.77250388884
4	54	2.095287575907	435.27613984492
4	58	2.312925645829	935.4451916738
4	76	2.780648241666	583.90577926813
4	84	3.0726011313	626.88832750237
4	99	3.386045295051	356.35760283961
4	104	3.564224096471	1592.1239669459
4	121	4.360286079944	486.35469638099
4	131	4.603463428134	1386.6851320705
4	151	5.296805994169	306.89921069233
4	155	5.450255599515	409.07614950549
4	164	5.654793674268	341.1107214321
4	171	5.825349034984	1780.1620844851
4	201	6.715430077227	1211.1021298109
4	235	7.320981142132	4083.464139456
4	305	9.36271321186	1245.6270904259
4	322	9.985526757073	725.35903250791
4	344	10.348206273327	2812.3735438148
4	416	11.754393045234	942.0440836789
4	444	12.225415087073	155.33125970361
4	449	12.303080716925	2410.5132961528
4	530	13.508337365001	1413.9030727548
4	563	14.215288901378	704.46174026945
4	574	14.567519771513	3705.7628485313
4	715	16.420401195779	2924.4500303908
4	828	17.882626210974	923.84363041947
4	867	18.344548026184	1069.0489889952
4	909	18.879072520682	738.78037094319
4	938	19.248462706154	1511.9381198313
4	1003	20.00443176607	2473.4966430883
4	1123	21.241180087614	496.88426501208
4	1151	21.48962222012	2516.5236278231
5	3	0.208107476471	0.208107476471
5	19	0.900863063364	0.900863063364
5	39	1.776592303219	1.776592303219
5	43	1.839956204031	1.839956204031
5	50	1.941401323963	1.941401323963
5	54	2.095287575907	2.095287575907
5	58	2.312925645829	2.312925645829
5	76	2.780648241666	2.780648241666
5	84	3.0726011313	3.0726011313
5	99	3.386045295051	3.386045295051
5	104	3.564224096471	3.564224096471
5	121	4.360286079944	4.360286079944
5	131	4.603463428134	4.603463428134
5	151	5.296805994169	5.296805994169
5	155	5.450255599515	5.450255599515
5	164	5.654793674268	5.654793674268
5	171	5.825349034984	5.825349034984
5	201	6.715430077227	6.715430077227
5	235	7.320981142132	7.320981142132
5	305	9.36271321186	9.36271321186
5	322	9.985526757073	9.985526757073
5	344	10.348206273327	10.348206273327
5	416	11.754393045234	11.754393045234
5	444	12.225415087073	12.225415087073
5	449	12.303080716925	12.303080716925
5	530	13.508337365001	13.508337365001
5	563	14.215288901378	14.215288901378
5	574	14.567519771513	14.567519771513
5	715	16.420401195779	16.420401195779
5	828	17.882626210974	17.882626210974
5	867	18.344548026184	18.344548026184
5	909	18.879072520682	18.879072520682
5	938	19.248462706154	19.248462706154
5	1003	20.00443176607	20.00443176607
5	1123	21.241180087614	21.241180087614
5	1151	21.48962222012	21.48962222012

